Version 4
SHEET 1 1352 680
WIRE 32 48 -16 48
WIRE 336 48 256 48
WIRE 416 48 416 32
WIRE 416 48 336 48
WIRE 288 112 256 112
WIRE 32 176 -96 176
WIRE -16 224 -16 48
WIRE 288 224 288 112
WIRE 288 224 -16 224
WIRE 32 352 -16 352
WIRE 416 352 416 48
WIRE 416 352 256 352
WIRE 288 416 256 416
WIRE 32 480 -96 480
WIRE -16 560 -16 352
WIRE 288 560 288 416
WIRE 288 560 -16 560
FLAG 560 176 0
FLAG 560 96 VCC
FLAG 32 -16 0
FLAG 256 -16 VCC
FLAG 32 288 0
FLAG 256 288 VCC
FLAG -96 176 INPUT_A
FLAG -96 480 INPUT_B
FLAG 416 -48 VCC
FLAG 336 48 AND_OUTPUT
FLAG 960 176 0
FLAG 960 96 INPUT_A
FLAG 1024 176 0
FLAG 1024 96 INPUT_B
FLAG -16 224 0
FLAG -16 560 0
SYMBOL voltage 560 80 R0
SYMATTR InstName V1
SYMATTR Value 5
SYMBOL Misc\\NE555 144 80 R0
SYMATTR InstName U1
SYMBOL Misc\\NE555 144 384 R0
SYMATTR InstName U2
SYMBOL res 400 -64 R0
SYMATTR InstName R1
SYMATTR Value 10k
SYMBOL voltage 960 80 M0
WINDOW 3 49 52 Left 2
WINDOW 123 0 0 Left 0
WINDOW 39 0 0 Left 0
SYMATTR Value PULSE(0 5 0.25 1N 1N 1 2 2)
SYMATTR InstName V2
SYMBOL voltage 1024 80 R0
WINDOW 123 0 0 Left 0
WINDOW 39 0 0 Left 0
SYMATTR InstName V3
SYMATTR Value PULSE(0 5 1 1N 1N 0.5 2 2)
TEXT -16 -88 Left 2 ;AND Gate
TEXT -288 568 Left 2 !.tran 0 2 0 1
