Version 4
SHEET 1 1352 680
WIRE -224 48 -272 48
WIRE -16 48 -224 48
WIRE 32 48 -16 48
WIRE 336 48 256 48
WIRE 416 48 416 32
WIRE 416 48 336 48
WIRE 32 112 -112 112
WIRE 288 112 256 112
WIRE -16 224 -16 48
WIRE 288 224 288 112
WIRE 288 224 -16 224
WIRE -224 352 -272 352
WIRE -16 352 -224 352
WIRE 32 352 -16 352
WIRE 416 352 416 48
WIRE 416 352 256 352
WIRE 32 416 -112 416
WIRE 288 416 256 416
WIRE -16 560 -16 352
WIRE 288 560 288 416
WIRE 288 560 -16 560
FLAG 560 176 0
FLAG 560 96 VCC
FLAG 32 -16 0
FLAG 256 -16 VCC
FLAG 32 288 0
FLAG 256 288 VCC
FLAG -112 112 INPUT_A_INV
FLAG -112 416 INPUT_B_INV
FLAG -224 48 INPUT_A
FLAG -224 352 INPUT_B
FLAG 416 -48 VCC
FLAG 336 48 NOR_OUTPUT
FLAG 960 176 0
FLAG 960 96 INPUT_A
FLAG 1024 176 0
FLAG 1024 96 INPUT_B
FLAG 32 176 VCC
FLAG 32 480 VCC
SYMBOL voltage 560 80 R0
SYMATTR InstName V1
SYMATTR Value 5
SYMBOL Misc\\NE555 144 80 R0
SYMATTR InstName U1
SYMBOL Misc\\NE555 144 384 R0
SYMATTR InstName U2
SYMBOL res 400 -64 R0
SYMATTR InstName R1
SYMATTR Value 10k
SYMBOL voltage 960 80 M0
WINDOW 3 49 52 Left 2
WINDOW 123 0 0 Left 0
WINDOW 39 0 0 Left 0
SYMATTR Value PULSE(0 5 0.25 1N 1N 1 2 2)
SYMATTR InstName V2
SYMBOL voltage 1024 80 R0
WINDOW 123 0 0 Left 0
WINDOW 39 0 0 Left 0
SYMATTR InstName V3
SYMATTR Value PULSE(0 5 1 1N 1N 0.5 2 2)
TEXT -16 -88 Left 2 ;NOR Gate w/ Inverter Outputs
TEXT -288 568 Left 2 !.tran 0 2 0 1
